Version 4
SHEET 1 880 680
WIRE 368 144 368 112
WIRE 416 144 368 144
WIRE 368 176 368 144
WIRE 544 288 368 288
WIRE 720 320 672 320
WIRE 544 352 512 352
WIRE 512 464 512 352
WIRE 576 464 512 464
WIRE 720 464 720 320
WIRE 720 464 656 464
FLAG 480 144 0
FLAG 368 368 0
FLAG 288 112 0
FLAG 288 32 HV
FLAG 368 32 HV
FLAG 512 544 0
FLAG 544 112 0
FLAG 704 32 0
FLAG 544 32 Vcc
FLAG 608 240 Vcc
FLAG 704 112 Vee
FLAG 608 400 Vee
SYMBOL Res 352 16 R0
SYMATTR InstName R1
SYMATTR Value 1k
SYMBOL Res 352 272 R0
SYMATTR InstName R2
SYMATTR Value 50
SYMBOL Cap 480 128 R90
WINDOW 0 0 32 VBottom 2
WINDOW 3 32 32 VTop 2
SYMATTR InstName C1
SYMATTR Value 10n
SYMBOL Voltage 288 16 R0
SYMATTR InstName V1
SYMATTR Value 27
SYMBOL Res 496 448 R0
SYMATTR InstName R3
SYMATTR Value 1k
SYMBOL Res 672 448 R90
WINDOW 0 0 56 VBottom 2
WINDOW 3 32 56 VTop 2
SYMATTR InstName R4
SYMATTR Value 1Meg
SYMBOL SiPM 368 240 R0
SYMATTR InstName X2
SYMBOL Voltage 704 16 R0
SYMATTR InstName V2
SYMATTR Value 3
SYMBOL Voltage 544 16 R0
SYMATTR InstName V3
SYMATTR Value 3
SYMBOL LM321 608 320 R0
SYMATTR InstName U1
TEXT 328 440 Left 2 !.tran 1e-3
